Version 4
SHEET 1 896 680
WIRE 48 -48 -272 -48
WIRE 288 -48 48 -48
WIRE 48 -32 48 -48
WIRE -272 16 -272 -48
WIRE 288 64 288 32
WIRE 496 64 288 64
WIRE 48 80 48 48
WIRE 48 80 -80 80
WIRE 288 80 288 64
WIRE 48 128 48 80
WIRE 128 128 48 128
WIRE 592 128 496 128
WIRE -272 144 -272 96
WIRE 48 144 48 128
WIRE 128 160 128 128
WIRE 240 160 128 160
WIRE 288 192 288 176
WIRE 496 192 288 192
WIRE -80 208 -80 144
WIRE 288 240 288 192
WIRE -208 256 -288 256
WIRE -176 256 -208 256
WIRE 624 256 496 256
WIRE -288 288 -288 256
WIRE 48 320 48 224
WIRE 240 320 48 320
WIRE 480 320 288 320
WIRE 48 336 48 320
WIRE 48 336 -80 336
WIRE 480 352 480 320
WIRE 48 368 48 336
WIRE 288 368 288 336
WIRE -176 400 -176 256
WIRE -80 400 -176 400
WIRE -288 432 -288 368
WIRE 176 448 48 448
WIRE 288 448 176 448
WIRE 480 448 480 416
WIRE 480 448 288 448
WIRE 176 528 176 448
FLAG -288 432 0
FLAG -272 144 0
FLAG -80 208 0
FLAG 176 528 0
FLAG 592 128 Vout2
IOPIN 592 128 Out
FLAG 624 256 Vout1
IOPIN 624 256 Out
FLAG -208 256 in
SYMBOL nmos4 240 80 R0
SYMATTR InstName M1
SYMBOL nmos4 240 240 R0
SYMATTR InstName M2
SYMBOL res 272 -64 R0
SYMATTR InstName R1
SYMATTR Value 3.3k
SYMBOL res 32 -48 R0
SYMATTR InstName R2
SYMATTR Value 100k
SYMBOL res 32 128 R0
SYMATTR InstName R3
SYMATTR Value 24k
SYMBOL res 32 352 R0
SYMATTR InstName R4
SYMATTR Value 12k
SYMBOL res 272 352 R0
SYMATTR InstName R5
SYMATTR Value 1k
SYMBOL cap 480 64 R0
SYMATTR InstName C1
SYMATTR Value 10µ
SYMBOL cap 480 192 R0
SYMATTR InstName C2
SYMATTR Value 10µ
SYMBOL cap 464 352 R0
SYMATTR InstName C3
SYMATTR Value 100µ
SYMBOL cap -96 80 R0
SYMATTR InstName CG2
SYMATTR Value 100µ
SYMBOL cap -96 336 R0
SYMATTR InstName CG!
SYMATTR Value 10µ
SYMBOL voltage -272 0 R0
SYMATTR InstName VDD
SYMATTR Value 18
SYMBOL voltage -288 272 R0
WINDOW 123 24 124 Left 2
WINDOW 39 0 0 Left 0
SYMATTR Value2 AC 1
SYMATTR InstName VS
SYMATTR Value SINE(0 10m 1k)
TEXT 512 480 Left 2 !.tran 0 3m 0.1m
TEXT 224 520 Left 2 !.Moodel NMOS1 NMOS(KP=1.6E-3,VTO=0.8,Lambda=0.8)
TEXT 216 568 Left 2 !.Moodel NMOS2 NMOS(KP=1.6E-3,VTO=0.8,Lambda=0.1)
TEXT 304 -192 Left 2 ;2100040344
