Version 4
SHEET 1 880 680
WIRE 192 48 -48 48
WIRE 192 160 192 128
WIRE 304 208 192 208
WIRE -48 224 -48 48
WIRE 112 224 48 224
WIRE 112 240 112 224
WIRE 144 240 112 240
WIRE 192 272 192 256
WIRE 240 272 192 272
WIRE 192 288 192 272
WIRE 240 304 240 272
WIRE 304 304 304 288
WIRE 304 304 240 304
WIRE -48 320 -48 304
WIRE 48 320 48 304
FLAG -48 320 0
FLAG 48 320 0
FLAG 192 288 0
SYMBOL voltage 48 208 R0
WINDOW 123 0 0 Left 0
WINDOW 39 0 0 Left 0
SYMATTR InstName vgs
SYMATTR Value 1
SYMBOL voltage -48 208 R0
WINDOW 123 0 0 Left 0
WINDOW 39 0 0 Left 0
SYMATTR InstName vds
SYMATTR Value 5
SYMBOL res 176 32 R0
SYMATTR InstName R1
SYMATTR Value 10k
SYMBOL nmos4 144 160 R0
SYMATTR InstName M1
SYMBOL voltage 304 192 R0
SYMATTR InstName Vbs
SYMATTR Value {v}
TEXT 312 128 Left 2 ;IV Characterstics of nmos
TEXT 392 320 Left 2 !.dc vds 0 5 0.1
TEXT 360 376 Left 2 !.step param V 0 5 1
TEXT 304 -32 Left 2 ;2100040344
